NDPIS/Case0/WithDG/case0_WithDG_VLN_Node.Txt

LINE-GROUND and LINE-LINE VOLTAGES BY BUS & NODE

Bus       Node    VLN (kV)   Angle      pu     Base kV    Node-Node   VLL (kV)  Angle      pu

SOURCEBUS 1       6.5768 /_   -0.1   0.99924    11.400        1-2     11.391 /_   29.9   0.99924
   -      2       6.5768 /_ -120.1   0.99924    11.400        2-3     11.391 /_  -90.1   0.99924
   -      3       6.5768 /_  119.9   0.99924    11.400        3-1     11.391 /_  149.9   0.99924
2 ....... 1       6.5675 /_   -0.3   0.99783    11.400        1-2     11.375 /_   29.7   0.99783
   -      2       6.5675 /_ -120.3   0.99783    11.400        2-3     11.375 /_  -90.3   0.99783
   -      3       6.5675 /_  119.7   0.99783    11.400        3-1     11.375 /_  149.7   0.99783
3 ....... 1       6.5876 /_    0.2    1.0009    11.400        1-2      11.41 /_   30.2    1.0009
   -      2       6.5876 /_ -119.8    1.0009    11.400        2-3      11.41 /_  -89.8    1.0009
   -      3       6.5876 /_  120.2    1.0009    11.400        3-1      11.41 /_  150.2    1.0009
